Version 4
SHEET 1 1780 1776
WIRE 336 208 224 208
WIRE 432 208 416 208
WIRE 480 208 432 208
WIRE 672 208 560 208
WIRE 832 208 672 208
WIRE 1232 208 1120 208
WIRE 1328 208 1312 208
WIRE 1376 208 1328 208
WIRE 1568 208 1456 208
WIRE 1728 208 1568 208
WIRE 672 240 672 208
WIRE 832 240 832 208
WIRE 1568 240 1568 208
WIRE 1728 240 1728 208
WIRE 224 256 224 208
WIRE 1120 256 1120 208
WIRE 224 384 224 336
WIRE 480 384 224 384
WIRE 672 384 672 304
WIRE 672 384 560 384
WIRE 832 384 832 320
WIRE 832 384 672 384
WIRE 1120 384 1120 336
WIRE 1376 384 1120 384
WIRE 1568 384 1568 304
WIRE 1568 384 1456 384
WIRE 1728 384 1728 320
WIRE 1728 384 1568 384
WIRE 224 416 224 384
WIRE 1120 416 1120 384
WIRE 336 576 224 576
WIRE 432 576 416 576
WIRE 480 576 432 576
WIRE 672 576 560 576
WIRE 800 576 672 576
WIRE 672 608 672 576
WIRE 224 624 224 576
WIRE 480 752 400 752
WIRE 672 752 672 672
WIRE 672 752 560 752
WIRE 800 752 672 752
WIRE 224 784 224 704
WIRE 800 784 800 752
WIRE 800 912 800 864
WIRE 336 1056 224 1056
WIRE 432 1056 416 1056
WIRE 480 1056 432 1056
WIRE 672 1056 560 1056
WIRE 800 1056 672 1056
WIRE 672 1088 672 1056
WIRE 224 1104 224 1056
WIRE 480 1232 400 1232
WIRE 672 1232 672 1152
WIRE 672 1232 560 1232
WIRE 800 1232 672 1232
WIRE 224 1264 224 1184
WIRE 800 1264 800 1232
WIRE 800 1392 800 1344
WIRE 320 1552 208 1552
WIRE 416 1552 400 1552
WIRE 464 1552 416 1552
WIRE 656 1552 544 1552
WIRE 704 1552 656 1552
WIRE 816 1552 768 1552
WIRE 656 1584 656 1552
WIRE 816 1584 816 1552
WIRE 208 1600 208 1552
WIRE 208 1728 208 1680
WIRE 464 1728 208 1728
WIRE 656 1728 656 1648
WIRE 656 1728 544 1728
WIRE 816 1728 816 1664
WIRE 816 1728 656 1728
WIRE 208 1760 208 1728
FLAG 432 208 Vlow
FLAG 224 416 0
FLAG 432 576 Vband
FLAG 224 784 0
FLAG 800 912 0
FLAG 432 1056 Vstop
FLAG 224 1264 0
FLAG 800 1392 0
FLAG 416 1552 Vhigh
FLAG 208 1760 0
FLAG 1328 208 Vlow
FLAG 1120 416 0
SYMBOL Res 816 224 R0
SYMATTR InstName R1
SYMATTR Value 1
SYMBOL Res 432 192 R90
WINDOW 0 0 56 VBottom 2
WINDOW 3 32 56 VTop 2
SYMATTR InstName Rlow
SYMATTR Value 1
SYMBOL ind 464 224 R270
WINDOW 0 32 56 VTop 2
WINDOW 3 5 56 VBottom 2
SYMATTR InstName L1
SYMATTR Value 1.648
SYMBOL Voltage 224 240 R0
WINDOW 123 24 118 Left 2
SYMATTR Value2 AC 1
SYMATTR InstName V1
SYMATTR Value ""
SYMBOL cap 656 240 R0
SYMATTR InstName C1
SYMATTR Value 3.296
SYMBOL ind 464 400 R270
WINDOW 0 32 56 VTop 2
WINDOW 3 5 56 VBottom 2
SYMATTR InstName L2
SYMATTR Value 1.648
SYMBOL Res 432 560 R90
WINDOW 0 0 56 VBottom 2
WINDOW 3 32 56 VTop 2
SYMATTR InstName Rband
SYMATTR Value 1
SYMBOL ind 464 592 R270
WINDOW 0 32 56 VTop 2
WINDOW 3 5 56 VBottom 2
SYMATTR InstName L3
SYMATTR Value 1.648
SYMBOL Voltage 224 608 R0
WINDOW 123 24 118 Left 2
SYMATTR Value2 AC 1
SYMATTR InstName V2
SYMATTR Value ""
SYMBOL cap 656 608 R0
SYMATTR InstName C2
SYMATTR Value 3.296
SYMBOL ind 464 768 R270
WINDOW 0 32 56 VTop 2
WINDOW 3 5 56 VBottom 2
SYMATTR InstName L4
SYMATTR Value 1.648
SYMBOL Res 784 768 R0
SYMATTR InstName R2
SYMATTR Value 1
SYMBOL Res 432 1040 R90
WINDOW 0 0 56 VBottom 2
WINDOW 3 32 56 VTop 2
SYMATTR InstName Rstop
SYMATTR Value 1
SYMBOL ind 464 1072 R270
WINDOW 0 32 56 VTop 2
WINDOW 3 5 56 VBottom 2
SYMATTR InstName L5
SYMATTR Value 1.648
SYMBOL Voltage 224 1088 R0
WINDOW 123 24 118 Left 2
SYMATTR Value2 AC 1
SYMATTR InstName V3
SYMATTR Value ""
SYMBOL cap 656 1088 R0
SYMATTR InstName C3
SYMATTR Value 3.296
SYMBOL ind 464 1248 R270
WINDOW 0 32 56 VTop 2
WINDOW 3 5 56 VBottom 2
SYMATTR InstName L6
SYMATTR Value 1.648
SYMBOL Res 784 1248 R0
SYMATTR InstName R3
SYMATTR Value 1
SYMBOL Res 800 1568 R0
SYMATTR InstName R4
SYMATTR Value 1
SYMBOL Res 416 1536 R90
WINDOW 0 0 56 VBottom 2
WINDOW 3 32 56 VTop 2
SYMATTR InstName Rhigh
SYMATTR Value 1
SYMBOL ind 448 1568 R270
WINDOW 0 32 56 VTop 2
WINDOW 3 5 56 VBottom 2
SYMATTR InstName L7
SYMATTR Value 1.648
SYMBOL Voltage 208 1584 R0
WINDOW 123 24 118 Left 2
SYMATTR Value2 AC 1
SYMATTR InstName V4
SYMATTR Value ""
SYMBOL cap 640 1584 R0
SYMATTR InstName C4
SYMATTR Value 3.296
SYMBOL ind 448 1744 R270
WINDOW 0 32 56 VTop 2
WINDOW 3 5 56 VBottom 2
SYMATTR InstName L8
SYMATTR Value 1.648
SYMBOL cap 768 1536 R90
WINDOW 0 0 32 VBottom 2
WINDOW 3 32 32 VTop 2
SYMATTR InstName C5
SYMATTR Value 3.3
SYMBOL Res 1712 224 R0
SYMATTR InstName R5
SYMATTR Value 1
SYMBOL Res 1328 192 R90
WINDOW 0 0 56 VBottom 2
WINDOW 3 32 56 VTop 2
SYMATTR InstName Rlow1
SYMATTR Value 1
SYMBOL ind 1360 224 R270
WINDOW 0 32 56 VTop 2
WINDOW 3 5 56 VBottom 2
SYMATTR InstName L9
SYMATTR Value 1.648
SYMBOL Voltage 1120 240 R0
WINDOW 123 24 118 Left 2
SYMATTR Value2 AC 1
SYMATTR InstName V5
SYMATTR Value ""
SYMBOL cap 1552 240 R0
SYMATTR InstName C6
SYMATTR Value 3.296
SYMBOL ind 1360 400 R270
WINDOW 0 32 56 VTop 2
WINDOW 3 5 56 VBottom 2
SYMATTR InstName L10
SYMATTR Value 1.648
TEXT 64 72 Left 2 !.ac dec 200 0.0001 10
